Version 4
SHEET 1 1540 680
WIRE -192 -304 -304 -304
WIRE -304 -208 -304 -304
WIRE -288 -208 -304 -208
WIRE -192 -192 -192 -304
WIRE -192 -192 -224 -192
WIRE -160 -192 -192 -192
WIRE -400 -176 -400 -192
WIRE -288 -176 -400 -176
WIRE -400 -160 -400 -176
WIRE -144 -64 -272 -64
WIRE 96 -64 80 -64
WIRE 208 -64 208 -96
WIRE 208 -64 176 -64
WIRE 240 -64 208 -64
WIRE -272 32 -272 -64
WIRE -240 32 -272 32
WIRE -144 48 -144 -64
WIRE -144 48 -176 48
WIRE -112 48 -144 48
WIRE 80 48 80 -64
WIRE 80 48 32 48
WIRE 96 48 80 48
WIRE 208 48 176 48
WIRE 240 48 208 48
WIRE -592 64 -656 64
WIRE -560 64 -592 64
WIRE -448 64 -480 64
WIRE -416 64 -448 64
WIRE -304 64 -336 64
WIRE -240 64 -304 64
WIRE -592 80 -592 64
WIRE -448 80 -448 64
WIRE -304 80 -304 64
WIRE 208 80 208 48
FLAG -992 144 0
FLAG 240 48 OUT1
IOPIN 240 48 Out
FLAG -992 -80 0
FLAG 208 160 0
FLAG 208 -176 0
FLAG 240 -64 OUT2
IOPIN 240 -64 Out
FLAG -992 -160 IN
IOPIN -992 -160 In
FLAG -992 64 +5V
IOPIN -992 64 In
FLAG -208 16 +5V
IOPIN -208 16 In
FLAG -656 64 IN
IOPIN -656 64 In
FLAG -208 80 0
FLAG -592 144 0
FLAG -448 144 0
FLAG -304 144 0
FLAG -256 -160 0
FLAG -256 -224 +5V
IOPIN -256 -224 In
FLAG -400 -80 0
FLAG -160 -192 2V5
FLAG -400 -272 +5V
IOPIN -400 -272 In
SYMBOL voltage -992 48 R0
WINDOW 123 0 0 Left 0
WINDOW 39 0 0 Left 0
SYMATTR InstName V1
SYMATTR Value 5V
SYMBOL voltage -992 -176 R0
WINDOW 123 0 0 Left 0
WINDOW 39 24 124 Left 2
SYMATTR SpiceLine Rser=127
SYMATTR InstName V2
SYMATTR Value PULSE(0 5 0 2n 2n 50n 100n)
SYMBOL res 192 64 R0
SYMATTR InstName R2
SYMATTR Value 50
SYMBOL res 192 -192 R0
WINDOW 0 36 42 Left 2
SYMATTR InstName R1
SYMATTR Value 50
SYMBOL cap -48 32 R90
WINDOW 0 0 32 VBottom 2
WINDOW 3 32 32 VTop 2
SYMATTR InstName C4
SYMATTR Value 0.1µ
SYMBOL cap -608 80 R0
SYMATTR InstName C2
SYMATTR Value 330p
SYMBOL ind -576 80 R270
WINDOW 0 32 56 VTop 2
WINDOW 3 5 56 VBottom 2
SYMATTR InstName L1
SYMATTR Value 1µ
SYMATTR SpiceLine Rser=400m
SYMBOL cap -464 80 R0
SYMATTR InstName C3
SYMATTR Value 330p
SYMBOL ind -432 80 R270
WINDOW 0 32 56 VTop 2
WINDOW 3 5 56 VBottom 2
SYMATTR InstName L2
SYMATTR Value 1µ
SYMATTR SpiceLine Rser=400m
SYMBOL cap -320 80 R0
SYMATTR InstName C5
SYMATTR Value 330p
SYMBOL Opamps\\UniversalOpamp2 -256 -192 R0
SYMATTR InstName U2
SYMATTR Value2 Avol=100k GBW=50Meg Slew=25Meg
SYMBOL res -416 -176 R0
SYMATTR InstName R7
SYMATTR Value 100k
SYMBOL res -416 -288 R0
SYMATTR InstName R8
SYMATTR Value 100k
SYMBOL res 192 -80 R90
WINDOW 0 0 56 VBottom 2
WINDOW 3 32 56 VTop 2
SYMATTR InstName R3
SYMATTR Value 25
SYMBOL res 192 32 R90
WINDOW 0 0 56 VBottom 2
WINDOW 3 32 56 VTop 2
SYMATTR InstName R4
SYMATTR Value 25
SYMBOL res 48 32 R90
WINDOW 0 0 56 VBottom 2
WINDOW 3 32 56 VTop 2
SYMATTR InstName R5
SYMATTR Value 50
SYMBOL Opamps\\UniversalOpamp2 -208 48 R0
SYMATTR InstName U1
SYMATTR Value2 Avol=100k GBW=100Meg Slew=130Meg
TEXT -864 -176 Left 2 !.tran 0 100.5u 100u
