Version 4
SHEET 1 1540 680
WIRE -192 -304 -304 -304
WIRE -304 -208 -304 -304
WIRE -288 -208 -304 -208
WIRE -192 -192 -192 -304
WIRE -192 -192 -224 -192
WIRE -160 -192 -192 -192
WIRE -400 -176 -400 -192
WIRE -288 -176 -400 -176
WIRE -400 -160 -400 -176
WIRE 32 -64 -96 -64
WIRE 304 -64 272 -64
WIRE 416 -64 416 -80
WIRE 416 -64 384 -64
WIRE 560 -64 560 -96
WIRE 560 -64 416 -64
WIRE 592 -64 560 -64
WIRE 416 -48 416 -64
WIRE -96 32 -96 -64
WIRE -64 32 -96 32
WIRE 32 48 32 -64
WIRE 32 48 0 48
WIRE 224 48 224 16
WIRE 224 48 192 48
WIRE 272 48 272 -64
WIRE 272 48 224 48
WIRE 304 48 272 48
WIRE 416 48 416 32
WIRE 416 48 384 48
WIRE 560 48 416 48
WIRE 592 48 560 48
WIRE -464 64 -496 64
WIRE -432 64 -464 64
WIRE -320 64 -352 64
WIRE -288 64 -320 64
WIRE -176 64 -208 64
WIRE -64 64 -176 64
WIRE 272 64 272 48
WIRE 416 64 416 48
WIRE -464 80 -464 64
WIRE -320 80 -320 64
WIRE -176 80 -176 64
WIRE 560 80 560 48
FLAG -992 144 0
FLAG 592 48 OUT1
IOPIN 592 48 Out
FLAG -992 -80 0
FLAG 560 160 0
FLAG 560 -176 0
FLAG 592 -64 OUT2
IOPIN 592 -64 Out
FLAG -992 -160 IN
IOPIN -992 -160 In
FLAG -992 64 +5V
IOPIN -992 64 In
FLAG -32 16 +5V
IOPIN -32 16 In
FLAG -496 64 IN
IOPIN -496 64 In
FLAG 224 16 SINE
FLAG 416 -144 0
FLAG 416 128 0
FLAG 272 128 0
FLAG -32 80 0
FLAG -464 144 0
FLAG -320 144 0
FLAG -176 144 0
FLAG -256 -160 0
FLAG -256 -224 +5V
IOPIN -256 -224 In
FLAG -400 -80 0
FLAG -160 -192 2V5
FLAG -400 -272 +5V
IOPIN -400 -272 In
SYMBOL voltage -992 48 R0
WINDOW 123 0 0 Left 0
WINDOW 39 0 0 Left 0
SYMATTR InstName V1
SYMATTR Value 5V
SYMBOL voltage -992 -176 R0
WINDOW 123 0 0 Left 0
WINDOW 39 24 124 Left 2
SYMATTR SpiceLine Rser=127
SYMATTR InstName V2
SYMATTR Value PULSE(0 5 0 2n 2n 50n 100n)
SYMBOL res 544 64 R0
SYMATTR InstName R2
SYMATTR Value 50
SYMBOL res 544 -192 R0
WINDOW 0 36 42 Left 2
SYMATTR InstName R1
SYMATTR Value 50
SYMBOL cap 192 32 R90
WINDOW 0 0 32 VBottom 2
WINDOW 3 32 32 VTop 2
SYMATTR InstName C4
SYMATTR Value 0.1µ
SYMBOL res 400 -64 R0
SYMATTR InstName R6
SYMATTR Value 100
SYMBOL ind 288 -48 R270
WINDOW 0 32 56 VTop 2
WINDOW 3 5 56 VBottom 2
SYMATTR InstName L3
SYMATTR Value 1µ
SYMATTR SpiceLine Rser=400m
SYMBOL ind 288 64 R270
WINDOW 0 32 56 VTop 2
WINDOW 3 5 56 VBottom 2
SYMATTR InstName L4
SYMATTR Value 1µ
SYMATTR SpiceLine Rser=400m
SYMBOL cap 400 64 R0
SYMATTR InstName C7
SYMATTR Value 330p
SYMBOL cap 400 -144 R0
SYMATTR InstName C8
SYMATTR Value 330p
SYMBOL Opamps\\UniversalOpamp2 -32 48 R0
SYMATTR InstName U1
SYMBOL cap 256 64 R0
SYMATTR InstName C1
SYMATTR Value 330p
SYMBOL cap -480 80 R0
SYMATTR InstName C2
SYMATTR Value 330p
SYMBOL ind -448 80 R270
WINDOW 0 32 56 VTop 2
WINDOW 3 5 56 VBottom 2
SYMATTR InstName L1
SYMATTR Value 1µ
SYMATTR SpiceLine Rser=400m
SYMBOL cap -336 80 R0
SYMATTR InstName C3
SYMATTR Value 330p
SYMBOL ind -304 80 R270
WINDOW 0 32 56 VTop 2
WINDOW 3 5 56 VBottom 2
SYMATTR InstName L2
SYMATTR Value 1µ
SYMATTR SpiceLine Rser=400m
SYMBOL cap -192 80 R0
SYMATTR InstName C5
SYMATTR Value 330p
SYMBOL Opamps\\UniversalOpamp2 -256 -192 R0
SYMATTR InstName U2
SYMBOL res -416 -176 R0
SYMATTR InstName R7
SYMATTR Value 100k
SYMBOL res -416 -288 R0
SYMATTR InstName R8
SYMATTR Value 100k
TEXT -864 -176 Left 2 !.tran 0 100.5u 100u
