Version 4
SHEET 1 1196 680
WIRE 544 -112 272 -112
WIRE 272 -80 272 -112
WIRE 944 -80 864 -80
WIRE 1040 -80 1008 -80
WIRE 1072 -80 1040 -80
WIRE 1040 -64 1040 -80
WIRE 544 16 544 -112
WIRE 544 16 512 16
WIRE 384 32 288 32
WIRE 560 48 512 48
WIRE 384 64 368 64
WIRE 528 80 512 80
WIRE 720 80 528 80
WIRE 752 80 720 80
WIRE 864 80 864 -80
WIRE 864 80 832 80
WIRE 944 80 864 80
WIRE 1040 80 1008 80
WIRE 1072 80 1040 80
WIRE 864 112 864 80
WIRE 1040 112 1040 80
WIRE 288 128 288 32
WIRE 720 128 720 80
WIRE 368 144 368 64
WIRE 528 144 528 80
WIRE 528 144 368 144
WIRE 560 160 560 48
WIRE 864 192 864 176
FLAG 272 0 0
FLAG 1072 80 OUT1
IOPIN 1072 80 Out
FLAG 288 208 0
FLAG 560 160 0
FLAG 720 192 0
FLAG 1040 192 0
FLAG 864 192 0
FLAG 1040 16 0
FLAG 1072 -80 OUT2
IOPIN 1072 -80 Out
SYMBOL voltage 272 -96 R0
WINDOW 123 0 0 Left 0
WINDOW 39 0 0 Left 0
SYMATTR InstName V1
SYMATTR Value 5V
SYMBOL voltage 288 112 R0
WINDOW 123 0 0 Left 0
WINDOW 39 24 124 Left 2
SYMATTR InstName V2
SYMATTR Value PULSE(0.5 4.5 0 6n 6n 50n 100n)
SYMBOL cap 704 128 R0
SYMATTR InstName C1
SYMATTR Value 750p
SYMBOL ind 736 96 R270
WINDOW 0 32 56 VTop 2
WINDOW 3 5 56 VBottom 2
SYMATTR InstName L2
SYMATTR Value 470n
SYMBOL cap 1008 64 R90
WINDOW 0 0 32 VBottom 2
WINDOW 3 32 32 VTop 2
SYMATTR InstName C2
SYMATTR Value 0.1µ
SYMBOL res 1024 96 R0
SYMATTR InstName R2
SYMATTR Value 50
SYMBOL AutoGenerated\\TLV354 448 48 R0
SYMATTR InstName U1
SYMBOL cap 848 112 R0
SYMATTR InstName C3
SYMATTR Value 430p
SYMBOL cap 1008 -96 R90
WINDOW 0 0 32 VBottom 2
WINDOW 3 32 32 VTop 2
SYMATTR InstName C4
SYMATTR Value 0.1µ
SYMBOL res 1024 -80 R0
SYMATTR InstName R1
SYMATTR Value 50
TEXT 288 288 Left 2 !.tran 0 101u 100u
