Version 4
SHEET 1 1180 680
WIRE 544 -112 272 -112
WIRE 272 -80 272 -112
WIRE 544 16 544 -112
WIRE 544 16 512 16
WIRE 384 32 288 32
WIRE 560 48 512 48
WIRE 384 64 368 64
WIRE 528 80 512 80
WIRE 592 80 528 80
WIRE 768 80 752 80
WIRE 800 80 768 80
WIRE 944 80 880 80
WIRE 1040 80 1008 80
WIRE 1072 80 1040 80
WIRE 1040 112 1040 80
WIRE 288 128 288 32
WIRE 768 128 768 80
WIRE 368 144 368 64
WIRE 528 144 528 80
WIRE 528 144 368 144
WIRE 560 160 560 48
FLAG 272 0 0
FLAG 1072 80 OUT
IOPIN 1072 80 Out
FLAG 288 208 0
FLAG 560 160 0
FLAG 768 192 0
FLAG 1040 192 0
SYMBOL voltage 272 -96 R0
WINDOW 123 0 0 Left 0
WINDOW 39 0 0 Left 0
SYMATTR InstName V1
SYMATTR Value 5V
SYMBOL voltage 288 112 R0
WINDOW 123 0 0 Left 0
WINDOW 39 24 124 Left 2
SYMATTR InstName V2
SYMATTR Value PULSE(0.5 4.5 0 6n 6n 50n 100n)
SYMATTR SpiceLine Rser=50
SYMBOL AutoGenerated\\TLV354 448 48 R0
SYMATTR InstName U2
SYMBOL res 576 96 R270
WINDOW 0 32 56 VTop 2
WINDOW 3 0 56 VBottom 2
SYMATTR InstName R1
SYMATTR Value 50
SYMBOL ind 656 96 R270
WINDOW 0 32 56 VTop 2
WINDOW 3 5 56 VBottom 2
SYMATTR InstName L1
SYMATTR Value 820n
SYMBOL cap 752 128 R0
SYMATTR InstName C1
SYMATTR Value 360p
SYMBOL ind 784 96 R270
WINDOW 0 32 56 VTop 2
WINDOW 3 5 56 VBottom 2
SYMATTR InstName L2
SYMATTR Value 820n
SYMBOL cap 1008 64 R90
WINDOW 0 0 32 VBottom 2
WINDOW 3 32 32 VTop 2
SYMATTR InstName C2
SYMATTR Value 1µ
SYMBOL res 1024 96 R0
SYMATTR InstName R2
SYMATTR Value 50
TEXT 286 284 Left 2 !.tran 0 101u 100u
